Questionable use of curly braces in "v1 n001 0 sine(0 5 {fr}) ac 1"
    Error: undefined symbol in: "[fr]"
LTspice 24.0.12 for Windows
Circuit: * C:\Users\sabri\OneDrive\Documents\HIBAH PENELITIAN\HIBAH DU 2024\circuit\coba.asc
Start Time: Sat May 18 19:36:15 2024
Error on line 2 : v1 n001 0 sine(0 5 (fr)) ac 1
	 Unknown parameter "fr"
solver = Normal
Maximum thread count: 16
tnom = 27
temp = 27
method = modified trap
No AC stimulus found:
     Set the value of a current or voltage source to "AC 1."
     to make it behave as a signal generator for AC analysis.
.OP point found by inspection.
Total elapsed time: 0.087 seconds.

