LTspice 24.0.12 for Windows
Circuit: * C:\Users\sabri\OneDrive\Documents\HIBAH PENELITIAN\HIBAH DU 2024\circuit\Draft1.asc
Start Time: Wed May 22 19:22:23 2024
solver = Normal
Maximum thread count: 16



.OP point found by inspection.
.step kv=0.1
tnom = 27
temp = 27
method = modified trap
.step kv=0.3
Total elapsed time: 0.103 seconds.

