LTspice 24.0.12 for Windows
Circuit: * C:\Users\sabri\OneDrive\Documents\HIBAH PENELITIAN\HIBAH DU 2024\circuit\EVAL_WPTSIM.asc
Start Time: Mon May 20 09:01:17 2024
solver = Normal
Maximum thread count: 16
tnom = 27
temp = 27
method = modified trap
.OP point found by inspection.
Total elapsed time: 0.032 seconds.

