LTspice 24.0.12 for Windows
Circuit: * C:\Users\sabri\OneDrive\Documents\HIBAH PENELITIAN\HIBAH DU 2024\WPT-DRONE-Q.asc
Start Time: Thu May 16 15:50:22 2024
solver = Normal
Maximum thread count: 16
tnom = 27
temp = 27
method = modified trap
.OP point found by inspection.
Total elapsed time: 0.104 seconds.

